data_global
_cell_length_a 15.3583592874
_cell_length_b 15.3583592874
_cell_length_c 15.3583592874
_cell_angle_alpha 60.0000000000
_cell_angle_beta 60.0000000000
_cell_angle_gamma 60.0000000000
_symmetry_space_group_name_H-M 'P 1'
loop_
_atom_site_label
_atom_site_fract_x
_atom_site_fract_y
_atom_site_fract_z
Si  0.0000000000 0.0000000000 0.0000000000
Si  0.0625000000 0.0625000000 0.0625000000
Si  0.0000000000 0.0000000000 0.2500000000
Si  0.0625000000 0.0625000000 0.3125000000
Si  0.0000000000 0.0000000000 0.5000000000
Si  0.0625000000 0.0625000000 0.5625000000
Si  0.0000000000 0.0000000000 0.7500000000
Si  0.0625000000 0.0625000000 0.8125000000
Si  0.0000000000 0.2500000000 0.0000000000
Si  0.0625000000 0.3125000000 0.0625000000
Si  0.0000000000 0.2500000000 0.2500000000
Si  0.0625000000 0.3125000000 0.3125000000
Si  0.0000000000 0.2500000000 0.5000000000
Si  0.0625000000 0.3125000000 0.5625000000
Si  0.0000000000 0.2500000000 0.7500000000
Si  0.0625000000 0.3125000000 0.8125000000
Si  0.0000000000 0.5000000000 0.0000000000
Si  0.0625000000 0.5625000000 0.0625000000
Si  0.0000000000 0.5000000000 0.2500000000
Si  0.0625000000 0.5625000000 0.3125000000
Si  0.0000000000 0.5000000000 0.5000000000
Si  0.0625000000 0.5625000000 0.5625000000
Si  0.0000000000 0.5000000000 0.7500000000
Si  0.0625000000 0.5625000000 0.8125000000
Si  0.0000000000 0.7500000000 0.0000000000
Si  0.0625000000 0.8125000000 0.0625000000
Si  0.0000000000 0.7500000000 0.2500000000
Si  0.0625000000 0.8125000000 0.3125000000
Si  0.0000000000 0.7500000000 0.5000000000
Si  0.0625000000 0.8125000000 0.5625000000
Si  0.0000000000 0.7500000000 0.7500000000
Si  0.0625000000 0.8125000000 0.8125000000
Si  0.2500000000 0.0000000000 0.0000000000
Si  0.3125000000 0.0625000000 0.0625000000
Si  0.2500000000 0.0000000000 0.2500000000
Si  0.3125000000 0.0625000000 0.3125000000
Si  0.2500000000 0.0000000000 0.5000000000
Si  0.3125000000 0.0625000000 0.5625000000
Si  0.2500000000 0.0000000000 0.7500000000
Si  0.3125000000 0.0625000000 0.8125000000
Si  0.2500000000 0.2500000000 0.0000000000
Si  0.3125000000 0.3125000000 0.0625000000
Si  0.2500000000 0.2500000000 0.2500000000
Si  0.3125000000 0.3125000000 0.3125000000
Si  0.2500000000 0.2500000000 0.5000000000
Si  0.3125000000 0.3125000000 0.5625000000
Si  0.2500000000 0.2500000000 0.7500000000
Si  0.3125000000 0.3125000000 0.8125000000
Si  0.2500000000 0.5000000000 0.0000000000
Si  0.3125000000 0.5625000000 0.0625000000
Si  0.2500000000 0.5000000000 0.2500000000
Si  0.3125000000 0.5625000000 0.3125000000
Si  0.2500000000 0.5000000000 0.5000000000
Si  0.3125000000 0.5625000000 0.5625000000
Si  0.2500000000 0.5000000000 0.7500000000
Si  0.3125000000 0.5625000000 0.8125000000
Si  0.2500000000 0.7500000000 0.0000000000
Si  0.3125000000 0.8125000000 0.0625000000
Si  0.2500000000 0.7500000000 0.2500000000
Si  0.3125000000 0.8125000000 0.3125000000
Si  0.2500000000 0.7500000000 0.5000000000
Si  0.3125000000 0.8125000000 0.5625000000
Si  0.2500000000 0.7500000000 0.7500000000
Si  0.3125000000 0.8125000000 0.8125000000
Si  0.5000000000 0.0000000000 0.0000000000
Si  0.5625000000 0.0625000000 0.0625000000
Si  0.5000000000 0.0000000000 0.2500000000
Si  0.5625000000 0.0625000000 0.3125000000
Si  0.5000000000 0.0000000000 0.5000000000
Si  0.5625000000 0.0625000000 0.5625000000
Si  0.5000000000 0.0000000000 0.7500000000
Si  0.5625000000 0.0625000000 0.8125000000
Si  0.5000000000 0.2500000000 0.0000000000
Si  0.5625000000 0.3125000000 0.0625000000
Si  0.5000000000 0.2500000000 0.2500000000
Si  0.5625000000 0.3125000000 0.3125000000
Si  0.5000000000 0.2500000000 0.5000000000
Si  0.5625000000 0.3125000000 0.5625000000
Si  0.5000000000 0.2500000000 0.7500000000
Si  0.5625000000 0.3125000000 0.8125000000
Si  0.5000000000 0.5000000000 0.0000000000
Si  0.5625000000 0.5625000000 0.0625000000
Si  0.5000000000 0.5000000000 0.2500000000
Si  0.5625000000 0.5625000000 0.3125000000
Si  0.5000000000 0.5000000000 0.5000000000
Si  0.5625000000 0.5625000000 0.5625000000
Si  0.5000000000 0.5000000000 0.7500000000
Si  0.5625000000 0.5625000000 0.8125000000
Si  0.5000000000 0.7500000000 0.0000000000
Si  0.5625000000 0.8125000000 0.0625000000
Si  0.5000000000 0.7500000000 0.2500000000
Si  0.5625000000 0.8125000000 0.3125000000
Si  0.5000000000 0.7500000000 0.5000000000
Si  0.5625000000 0.8125000000 0.5625000000
Si  0.5000000000 0.7500000000 0.7500000000
Si  0.5625000000 0.8125000000 0.8125000000
Si  0.7500000000 0.0000000000 0.0000000000
Si  0.8125000000 0.0625000000 0.0625000000
Si  0.7500000000 0.0000000000 0.2500000000
Si  0.8125000000 0.0625000000 0.3125000000
Si  0.7500000000 0.0000000000 0.5000000000
Si  0.8125000000 0.0625000000 0.5625000000
Si  0.7500000000 0.0000000000 0.7500000000
Si  0.8125000000 0.0625000000 0.8125000000
Si  0.7500000000 0.2500000000 0.0000000000
Si  0.8125000000 0.3125000000 0.0625000000
Si  0.7500000000 0.2500000000 0.2500000000
Si  0.8125000000 0.3125000000 0.3125000000
Si  0.7500000000 0.2500000000 0.5000000000
Si  0.8125000000 0.3125000000 0.5625000000
Si  0.7500000000 0.2500000000 0.7500000000
Si  0.8125000000 0.3125000000 0.8125000000
Si  0.7500000000 0.5000000000 0.0000000000
Si  0.8125000000 0.5625000000 0.0625000000
Si  0.7500000000 0.5000000000 0.2500000000
Si  0.8125000000 0.5625000000 0.3125000000
Si  0.7500000000 0.5000000000 0.5000000000
Si  0.8125000000 0.5625000000 0.5625000000
Si  0.7500000000 0.5000000000 0.7500000000
Si  0.8125000000 0.5625000000 0.8125000000
Si  0.7500000000 0.7500000000 0.0000000000
Si  0.8125000000 0.8125000000 0.0625000000
Si  0.7500000000 0.7500000000 0.2500000000
Si  0.8125000000 0.8125000000 0.3125000000
Si  0.7500000000 0.7500000000 0.5000000000
Si  0.8125000000 0.8125000000 0.5625000000
Si  0.7500000000 0.7500000000 0.7500000000
Si  0.8125000000 0.8125000000 0.8125000000
